Version 4
SHEET 1 880 680
WIRE 160 96 144 96
WIRE 256 96 240 96
WIRE 144 176 144 96
WIRE 256 176 256 96
WIRE 144 208 144 176
WIRE 256 272 144 272
WIRE 256 288 256 272
FLAG 256 288 0
SYMBOL CD4000\\CD40106B 192 128 R0
SYMATTR InstName U1
SYMBOL res 256 80 R90
WINDOW 0 0 56 VBottom 2
WINDOW 3 32 56 VTop 2
SYMATTR InstName R1
SYMATTR Value 2.2k
SYMBOL cap 128 208 R0
SYMATTR InstName C1
SYMATTR Value 10n
TEXT 126 312 Left 2 !.tran 0 0.01 0 1u
TEXT 128 24 Left 2 !.lib CD4000.lib
