Version 4
SHEET 1 880 680
WIRE 16 16 -208 16
WIRE 384 16 16 16
WIRE 480 16 384 16
WIRE 480 64 480 16
WIRE -208 96 -208 16
WIRE 80 96 -112 96
WIRE 384 96 384 16
WIRE 384 96 304 96
WIRE 80 160 -32 160
WIRE 480 160 480 144
WIRE 480 160 304 160
WIRE 480 192 480 160
WIRE 80 224 48 224
WIRE 416 224 304 224
WIRE 16 288 16 16
WIRE 80 288 16 288
WIRE 368 288 304 288
WIRE -32 384 -32 160
WIRE 416 384 416 224
WIRE 416 384 -32 384
WIRE 480 384 480 272
WIRE 480 384 416 384
WIRE 368 416 368 288
WIRE 480 416 480 384
WIRE -208 480 -208 176
WIRE -112 480 -112 96
WIRE -112 480 -208 480
WIRE 368 480 -112 480
WIRE 480 480 368 480
WIRE -112 512 -112 480
FLAG -112 512 0
SYMBOL Misc\\NE555 192 192 R0
SYMATTR InstName U1
SYMBOL voltage -208 80 R0
WINDOW 123 0 0 Left 0
WINDOW 39 0 0 Left 0
SYMATTR InstName V1
SYMATTR Value 5
SYMBOL res 464 48 R0
SYMATTR InstName R1
SYMATTR Value 1k
SYMBOL res 464 176 R0
SYMATTR InstName R2
SYMATTR Value 100k
SYMBOL cap 464 416 R0
SYMATTR InstName C1
SYMATTR Value 10n
SYMBOL cap 352 416 R0
SYMATTR InstName C2
SYMATTR Value 10n
TEXT -242 536 Left 2 !.tran 0 0.01 0 1u
