Version 4
SHEET 1 880 680
WIRE 176 128 128 128
WIRE 336 128 288 128
WIRE 16 256 16 128
WIRE 448 256 448 128
WIRE 448 256 16 256
SYMBOL CD4000\\CD4049B 64 64 R0
SYMATTR InstName U1
SYMBOL CD4000\\CD4049B 224 64 R0
SYMATTR InstName U2
SYMBOL CD4000\\CD4049B 384 64 R0
SYMATTR InstName U3
TEXT 144 48 Left 2 !.lib CD4000.lib
TEXT 10 262 Left 2 !.tran 0 0.001 0 1u
